###############################################################
#
#                    Primitive-cell CIF File
#
###############################################################

# TRANSFORM IN VESTA
#
# ( 1  1  0 )
# (-1  1  0 ) 
# ( 0  0  1 )

rubPBESOL03C_opt_data

_symmetry_space_group_name_H-M 'P 1'
_cell_length_a      13.78990234
_cell_length_b      13.78990234
_cell_length_c      14.87281439
_cell_angle_alpha   90.000000
_cell_angle_beta    90.000000
_cell_angle_gamma   149.445254

loop_
_atom_site_label
_atom_site_fract_x
_atom_site_fract_y
_atom_site_fract_z
C1 2.772250899354E-02 -2.772250899354E-02 -5.677231013004E-20
C2 4.722774910065E-01 -4.722774910065E-01 -5.000000000000E-01
C3 -2.772250899354E-02 2.772250899354E-02 -5.677231013004E-20
C4 -4.722774910065E-01 4.722774910065E-01 -5.000000000000E-01
C5 -8.631901163134E-02 -1.942633771486E-01 4.916351258864E-02
C6 -4.136809883687E-01 -3.057366228514E-01 -4.508364874114E-01
C7 1.942633771486E-01 8.631901163134E-02 -4.916351258864E-02
C8 3.057366228514E-01 4.136809883687E-01 4.508364874114E-01
C9 8.631901163134E-02 1.942633771486E-01 -4.916351258864E-02
C10 4.136809883687E-01 3.057366228514E-01 4.508364874114E-01
C11 -1.942633771486E-01 -8.631901163134E-02 4.916351258864E-02
C12 -3.057366228514E-01 -4.136809883687E-01 -4.508364874114E-01
C13 -2.610015271989E-01 -3.157708173401E-01 8.887880113300E-02
C14 -2.389984728011E-01 -1.842291826599E-01 -4.111211988670E-01
C15 3.157708173401E-01 2.610015271989E-01 -8.887880113300E-02
C16 1.842291826599E-01 2.389984728011E-01 4.111211988670E-01
C17 2.610015271989E-01 3.157708173401E-01 -8.887880113300E-02
C18 2.389984728011E-01 1.842291826599E-01 4.111211988670E-01
C19 -3.157708173401E-01 -2.610015271989E-01 8.887880113300E-02
C20 -1.842291826599E-01 -2.389984728011E-01 -4.111211988670E-01
C21 -3.812231368392E-01 -4.873023324582E-01 1.375442046845E-01
C22 -1.187768631608E-01 -1.269766754182E-02 -3.624557953155E-01
C23 4.873023324582E-01 3.812231368392E-01 -1.375442046845E-01
C24 1.269766754182E-02 1.187768631608E-01 3.624557953155E-01
C25 3.812231368392E-01 4.873023324582E-01 -1.375442046845E-01
C26 1.187768631608E-01 1.269766754182E-02 3.624557953155E-01
C27 -4.873023324582E-01 -3.812231368392E-01 1.375442046845E-01
C28 -1.269766754182E-02 -1.187768631608E-01 -3.624557953155E-01
C29 4.571530588512E-01 4.032160346677E-01 1.821644765548E-01
C30 4.284694114881E-02 9.678396533227E-02 -3.178355234452E-01
C31 -4.032160346677E-01 -4.571530588512E-01 -1.821644765548E-01
C32 -9.678396533227E-02 -4.284694114881E-02 3.178355234452E-01
C33 -4.571530588512E-01 -4.032160346677E-01 -1.821644765548E-01
C34 -4.284694114881E-02 -9.678396533227E-02 3.178355234452E-01
C35 4.032160346677E-01 4.571530588512E-01 1.821644765548E-01
C36 9.678396533227E-02 4.284694114881E-02 -3.178355234452E-01
C37 -1.584343950376E-02 -2.338864188212E-01 7.297892949801E-02
C38 -4.841565604962E-01 -2.661135811788E-01 -4.270210705020E-01
C39 2.338864188212E-01 1.584343950376E-02 -7.297892949801E-02
C40 2.661135811788E-01 4.841565604962E-01 4.270210705020E-01
C41 1.584343950376E-02 2.338864188212E-01 -7.297892949801E-02
C42 4.841565604962E-01 2.661135811788E-01 4.270210705020E-01
C43 -2.338864188212E-01 -1.584343950376E-02 7.297892949801E-02
C44 -2.661135811788E-01 -4.841565604962E-01 -4.270210705020E-01
C45 -9.786395196761E-02 -3.890642967376E-01 3.590257754124E-02
C46 -4.021360480324E-01 -1.109357032624E-01 -4.640974224588E-01
C47 3.890642967376E-01 9.786395196761E-02 -3.590257754124E-02
C48 1.109357032624E-01 4.021360480324E-01 4.640974224588E-01
C49 9.786395196761E-02 3.890642967376E-01 -3.590257754124E-02
C50 4.021360480324E-01 1.109357032624E-01 4.640974224588E-01
C51 -3.890642967376E-01 -9.786395196761E-02 3.590257754124E-02
C52 -1.109357032624E-01 -4.021360480324E-01 -4.640974224588E-01
C53 -4.826543336610E-02 -4.383936333499E-01 6.913074876763E-02
C54 -4.517345666339E-01 -6.160636665006E-02 -4.308692512324E-01
C55 4.383936333499E-01 4.826543336610E-02 -6.913074876763E-02
C56 6.160636665006E-02 4.517345666339E-01 4.308692512324E-01
C57 4.826543336610E-02 4.383936333499E-01 -6.913074876763E-02
C58 4.517345666339E-01 6.160636665006E-02 4.308692512324E-01
C59 -4.383936333499E-01 -4.826543336610E-02 6.913074876763E-02
C60 -6.160636665006E-02 -4.517345666339E-01 -4.308692512324E-01
C61 8.856005863793E-02 -3.297499829590E-01 1.381486030768E-01
C62 4.114399413621E-01 -1.702500170410E-01 -3.618513969232E-01
C63 3.297499829590E-01 -8.856005863793E-02 -1.381486030768E-01
C64 1.702500170410E-01 -4.114399413621E-01 3.618513969232E-01
C65 -8.856005863793E-02 3.297499829590E-01 -1.381486030768E-01
C66 -4.114399413621E-01 1.702500170410E-01 3.618513969232E-01
C67 -3.297499829590E-01 8.856005863793E-02 1.381486030768E-01
C68 -1.702500170410E-01 4.114399413621E-01 -3.618513969232E-01
C69 1.737004212568E-01 -1.725649653352E-01 1.744955517484E-01
C70 3.262995787432E-01 -3.274350346648E-01 -3.255044482516E-01
C71 1.725649653352E-01 -1.737004212568E-01 -1.744955517484E-01
C72 3.274350346648E-01 -3.262995787432E-01 3.255044482516E-01
C73 -1.737004212568E-01 1.725649653352E-01 -1.744955517484E-01
C74 -3.262995787432E-01 3.274350346648E-01 3.255044482516E-01
C75 -1.725649653352E-01 1.737004212568E-01 1.744955517484E-01
C76 -3.274350346648E-01 3.262995787432E-01 -3.255044482516E-01
C77 1.198788726705E-01 -1.267854328276E-01 1.425746421245E-01
C78 3.801211273295E-01 -3.732145671724E-01 -3.574253578755E-01
C79 1.267854328276E-01 -1.198788726705E-01 -1.425746421245E-01
C80 3.732145671724E-01 -3.801211273295E-01 3.574253578755E-01
C81 -1.198788726705E-01 1.267854328276E-01 -1.425746421245E-01
C82 -3.801211273295E-01 3.732145671724E-01 3.574253578755E-01
C83 -1.267854328276E-01 1.198788726705E-01 1.425746421245E-01
C84 -3.732145671724E-01 3.801211273295E-01 -3.574253578755E-01
H85 -3.405783486730E-01 4.700616154701E-01 1.402505723990E-01
H86 -1.594216513270E-01 2.993838452986E-02 -3.597494276010E-01
H87 -4.700616154701E-01 3.405783486730E-01 -1.402505723990E-01
H88 -2.993838452986E-02 1.594216513270E-01 3.597494276010E-01
H89 3.405783486730E-01 -4.700616154701E-01 -1.402505723990E-01
H90 1.594216513270E-01 -2.993838452986E-02 3.597494276010E-01
H91 4.700616154701E-01 -3.405783486730E-01 1.402505723990E-01
H92 2.993838452986E-02 -1.594216513270E-01 -3.597494276010E-01
H93 3.698141707723E-01 2.752506991272E-01 2.206621206826E-01
H94 1.301858292277E-01 2.247493008728E-01 -2.793378793174E-01
H95 -2.752506991272E-01 -3.698141707723E-01 -2.206621206826E-01
H96 -2.247493008728E-01 -1.301858292277E-01 2.793378793174E-01
H97 -3.698141707723E-01 -2.752506991272E-01 -2.206621206826E-01
H98 -1.301858292277E-01 -2.247493008728E-01 2.793378793174E-01
H99 2.752506991272E-01 3.698141707723E-01 2.206621206826E-01
H100 2.247493008728E-01 1.301858292277E-01 -2.793378793174E-01
H101 -2.033111807206E-01 -4.728127184451E-01 -1.955222019655E-02
H102 -2.966888192794E-01 -2.718728155487E-02 4.804477798034E-01
H103 4.728127184451E-01 2.033111807206E-01 1.955222019655E-02
H104 2.718728155487E-02 2.966888192794E-01 -4.804477798034E-01
H105 2.033111807206E-01 4.728127184451E-01 1.955222019655E-02
H106 2.966888192794E-01 2.718728155487E-02 -4.804477798034E-01
H107 -4.728127184451E-01 -2.033111807206E-01 -1.955222019655E-02
H108 -2.718728155487E-02 -2.966888192794E-01 4.804477798034E-01
H109 -1.176853875587E-01 4.359126355883E-01 4.128181534734E-02
H110 -3.823146124413E-01 6.408736441175E-02 -4.587181846527E-01
H111 -4.359126355883E-01 1.176853875587E-01 -4.128181534734E-02
H112 -6.408736441175E-02 3.823146124413E-01 4.587181846527E-01
H113 1.176853875587E-01 -4.359126355883E-01 -4.128181534734E-02
H114 3.823146124413E-01 -6.408736441175E-02 4.587181846527E-01
H115 4.359126355883E-01 -1.176853875587E-01 4.128181534734E-02
H116 6.408736441175E-02 -3.823146124413E-01 -4.587181846527E-01
H117 1.282397748628E-01 -3.687878355852E-01 1.634821916622E-01
H118 3.717602251372E-01 -1.312121644148E-01 -3.365178083378E-01
H119 3.687878355852E-01 -1.282397748628E-01 -1.634821916622E-01
H120 1.312121644148E-01 -3.717602251372E-01 3.365178083378E-01
H121 -1.282397748628E-01 3.687878355852E-01 -1.634821916622E-01
H122 -3.717602251372E-01 1.312121644148E-01 3.365178083378E-01
H123 -3.687878355852E-01 1.282397748628E-01 1.634821916622E-01
H124 -1.312121644148E-01 3.717602251372E-01 -3.365178083378E-01
H125 2.818733076175E-01 -8.530559348288E-02 2.290429096616E-01
H126 2.181266923825E-01 -4.146944065171E-01 -2.709570903384E-01
H127 8.530559348288E-02 -2.818733076175E-01 -2.290429096616E-01
H128 4.146944065171E-01 -2.181266923825E-01 2.709570903384E-01
H129 -2.818733076175E-01 8.530559348288E-02 -2.290429096616E-01
H130 -2.181266923825E-01 4.146944065171E-01 2.709570903384E-01
H131 -8.530559348288E-02 2.818733076175E-01 2.290429096616E-01
H132 -4.146944065171E-01 2.181266923825E-01 -2.709570903384E-01
H133 1.837812411448E-01 -5.418536844664E-03 1.722988363132E-01
H134 3.162187588552E-01 -4.945814631553E-01 -3.277011636868E-01
H135 5.418536844664E-03 -1.837812411448E-01 -1.722988363132E-01
H136 4.945814631553E-01 -3.162187588552E-01 3.277011636868E-01
H137 -1.837812411448E-01 5.418536844664E-03 -1.722988363132E-01
H138 -3.162187588552E-01 4.945814631553E-01 3.277011636868E-01
H139 -5.418536844664E-03 1.837812411448E-01 1.722988363132E-01
H140 -4.945814631553E-01 3.162187588552E-01 -3.277011636868E-01


#===END
