###############################################################
#
#                    Primitive-cell CIF File
#
###############################################################

TIPS-P-PBESOL03C_opt_data

_symmetry_space_group_name_H-M 'P 1'
_cell_length_a      7.72007856
_cell_length_b      7.91860994
_cell_length_c      17.05263382
_cell_angle_alpha   90.192267
_cell_angle_beta    77.732641
_cell_angle_gamma   84.224035

loop_
_atom_site_label
_atom_site_fract_x
_atom_site_fract_y
_atom_site_fract_z
SI1 2.448907820276E-01 -3.003999338008E-01 3.179590081663E-01
SI2 -2.448907820276E-01 3.003999338008E-01 -3.179590081663E-01
C3 4.436539423439E-01 -6.917607821609E-02 7.790005866928E-02
C4 -4.436539423439E-01 6.917607821609E-02 -7.790005866928E-02
C5 3.192837930269E-01 3.887981453890E-02 4.441515262033E-02
C6 -3.192837930269E-01 -3.887981453890E-02 -4.441515262033E-02
C7 1.394190854193E-01 7.825790605591E-02 8.620365482433E-02
C8 -1.394190854193E-01 -7.825790605591E-02 -8.620365482433E-02
C9 1.647552567433E-02 1.813612109631E-01 5.327071024244E-02
C10 -1.647552567433E-02 -1.813612109631E-01 -5.327071024244E-02
C11 -1.668220984004E-01 2.197102012029E-01 9.556511252780E-02
C12 1.668220984004E-01 -2.197102012029E-01 -9.556511252780E-02
C13 -2.860244974392E-01 3.191013464541E-01 6.142781541386E-02
C14 2.860244974392E-01 -3.191013464541E-01 -6.142781541386E-02
C15 -2.301862189258E-01 3.876624033385E-01 -1.726240280061E-02
C16 2.301862189258E-01 -3.876624033385E-01 1.726240280061E-02
C17 -5.739290514790E-02 3.543570428789E-01 -5.961722467327E-02
C18 5.739290514790E-02 -3.543570428789E-01 5.961722467327E-02
C19 7.255116481063E-02 2.498046753389E-01 -2.630023884466E-02
C20 -7.255116481063E-02 -2.498046753389E-01 2.630023884466E-02
C21 2.494656560265E-01 2.129412839804E-01 -6.788589501510E-02
C22 -2.494656560265E-01 -2.129412839804E-01 6.788589501510E-02
C23 3.760582085446E-01 1.087882378535E-01 -3.487452874848E-02
C24 -3.760582085446E-01 -1.087882378535E-01 3.487452874848E-02
C25 3.856045468799E-01 -1.408772236218E-01 1.546779217949E-01
C26 -3.856045468799E-01 1.408772236218E-01 -1.546779217949E-01
C27 3.334959111451E-01 -2.042231696636E-01 2.199869137798E-01
C28 -3.334959111451E-01 2.042231696636E-01 -2.199869137798E-01
C29 3.156696011883E-01 4.576634626286E-01 3.070979927792E-01
C30 -3.156696011883E-01 -4.576634626286E-01 -3.070979927792E-01
C31 2.365011201918E-01 3.772440336255E-01 2.403760173086E-01
C32 -2.365011201918E-01 -3.772440336255E-01 -2.403760173086E-01
C33 -4.770018443113E-01 4.199287382776E-01 2.896190053654E-01
C34 4.770018443113E-01 -4.199287382776E-01 -2.896190053654E-01
C35 3.597277095242E-01 -2.014728741773E-01 3.947642241640E-01
C36 -3.597277095242E-01 2.014728741773E-01 -3.947642241640E-01
C37 3.233126973749E-01 -2.873929910380E-01 4.779817362407E-01
C38 -3.233126973749E-01 2.873929910380E-01 -4.779817362407E-01
C39 3.196712988757E-01 -4.581836893492E-03 4.031396847972E-01
C40 -3.196712988757E-01 4.581836893492E-03 -4.031396847972E-01
C41 -1.195261527920E-02 -2.580004107900E-01 3.357751461231E-01
C42 1.195261527920E-02 2.580004107900E-01 -3.357751461231E-01
C43 -1.066750604241E-01 -3.539151370346E-01 4.098933598782E-01
C44 1.066750604241E-01 3.539151370346E-01 -4.098933598782E-01
C45 -8.194463779775E-02 -6.554195589199E-02 3.402080573976E-01
C46 8.194463779775E-02 6.554195589199E-02 -3.402080573976E-01
H47 9.516879985667E-02 2.240739297579E-02 1.459424185757E-01
H48 -9.516879985667E-02 -2.240739297579E-02 -1.459424185757E-01
H49 -2.096783480023E-01 1.647419323717E-01 1.556993181036E-01
H50 2.096783480023E-01 -1.647419323717E-01 -1.556993181036E-01
H51 -4.273623073531E-01 3.450701684638E-01 9.375319868565E-02
H52 4.273623073531E-01 -3.450701684638E-01 -9.375319868565E-02
H53 -3.292149902839E-01 4.689076437937E-01 -4.288907681143E-02
H54 3.292149902839E-01 -4.689076437937E-01 4.288907681143E-02
H55 -1.404050928763E-02 4.093318204249E-01 -1.197084351029E-01
H56 1.404050928763E-02 -4.093318204249E-01 1.197084351029E-01
H57 2.930187883940E-01 2.656614216076E-01 -1.284615888668E-01
H58 -2.930187883940E-01 -2.656614216076E-01 1.284615888668E-01
H59 2.588061796882E-01 4.006301330266E-01 3.665434584399E-01
H60 -2.588061796882E-01 -4.006301330266E-01 -3.665434584399E-01
H61 2.739730597935E-01 4.431218142069E-01 1.819053105391E-01
H62 -2.739730597935E-01 -4.431218142069E-01 -1.819053105391E-01
H63 8.703561160130E-02 3.851428404990E-01 2.563061764409E-01
H64 -8.703561160130E-02 -3.851428404990E-01 -2.563061764409E-01
H65 2.865040128841E-01 2.390534913490E-01 2.287782110926E-01
H66 -2.865040128841E-01 -2.390534913490E-01 -2.287782110926E-01
H67 -4.352692304402E-01 2.794542308024E-01 2.821266923402E-01
H68 4.352692304402E-01 -2.794542308024E-01 -2.821266923402E-01
H69 -4.180096777221E-01 4.663922817344E-01 3.394106513642E-01
H70 4.180096777221E-01 -4.663922817344E-01 -3.394106513642E-01
H71 -4.120186327361E-01 4.806603068761E-01 2.329787438877E-01
H72 4.120186327361E-01 -4.806603068761E-01 -2.329787438877E-01
H73 -4.939039986944E-01 -2.303834611917E-01 3.661284680488E-01
H74 4.939039986944E-01 2.303834611917E-01 -3.661284680488E-01
H75 4.050845115553E-01 -2.389935083065E-01 -4.810814550032E-01
H76 -4.050845115553E-01 2.389935083065E-01 4.810814550032E-01
H77 3.550107920909E-01 -4.289654773445E-01 4.728749217638E-01
H78 -3.550107920909E-01 4.289654773445E-01 -4.728749217638E-01
H79 1.801159451277E-01 -2.608197544709E-01 -4.900417029365E-01
H80 -1.801159451277E-01 2.608197544709E-01 4.900417029365E-01
H81 1.788763916660E-01 3.514405423714E-02 4.353644448846E-01
H82 -1.788763916660E-01 -3.514405423714E-02 -4.353644448846E-01
H83 3.405917743626E-01 5.654780559519E-02 3.430947347854E-01
H84 -3.405917743626E-01 -5.654780559519E-02 -3.430947347854E-01
H85 4.084580614320E-01 5.117889022854E-02 4.386231177117E-01
H86 -4.084580614320E-01 -5.117889022854E-02 -4.386231177117E-01
H87 -4.283120091349E-02 -3.148751779818E-01 2.799586906548E-01
H88 4.283120091349E-02 3.148751779818E-01 -2.799586906548E-01
H89 -6.563760354579E-02 -4.941794365195E-01 4.047431776206E-01
H90 6.563760354579E-02 4.941794365195E-01 -4.047431776206E-01
H91 -2.556884727399E-01 -3.359664410139E-01 4.173684541063E-01
H92 2.556884727399E-01 3.359664410139E-01 -4.173684541063E-01
H93 -7.728453082431E-02 -3.070818828697E-01 4.674177089073E-01
H94 7.728453082431E-02 3.070818828697E-01 -4.674177089073E-01
H95 -2.374298165923E-03 8.008783661046E-03 2.917416331886E-01
H96 2.374298165923E-03 -8.008783661046E-03 -2.917416331886E-01
H97 -7.738006612086E-02 -4.915202879498E-03 3.991610645036E-01
H98 7.738006612086E-02 4.915202879498E-03 -3.991610645036E-01
H99 -2.249112480135E-01 -4.633102250647E-02 3.341731151418E-01
H100 2.249112480135E-01 4.633102250647E-02 -3.341731151418E-01


#===END
