###############################################################################
#
#                    CRYSTAL17 CIF FILE
#
###############################################################################

data_OPT_STEP_1

_symmetry_space_group_name_H-M 'P 1'
_cell_length_a      7.90000000
_cell_length_b      6.06000000
_cell_length_c     16.01000000
_cell_angle_alpha  101.900002
_cell_angle_beta  112.599998
_cell_angle_gamma   85.800003

loop_
_atom_site_label
_atom_site_fract_x
_atom_site_fract_y
_atom_site_fract_z
C1  1.122078942089E-01  6.795021063179E-02  4.057504461729E-01
H2  1.573198981968E-01  1.402745980947E-01  4.786149359444E-01
C3  1.377831068218E-01  1.831832176286E-01  3.469710241105E-01
C4  2.687293038371E-02 -1.497396079522E-01  3.724041512822E-01
H5  2.010476206348E-01  3.491268516756E-01  3.717608867607E-01
C6  8.199123118991E-02  8.870288241022E-02  2.505802626790E-01
H7  7.322223580420E-03 -2.387729464179E-01  4.202728293578E-01
C8 -3.023343630747E-02 -2.452466771514E-01  2.813310972197E-01
C9  1.098902804452E-01  1.996763793419E-01  1.894575722048E-01
C10 -4.426267510452E-03 -1.320597915168E-01  2.168949588912E-01
H11 -9.561609819207E-02 -4.097292927494E-01  2.559340786974E-01
H12  1.755517150750E-01  3.642174112269E-01  2.147000436996E-01
C13  5.587225647844E-02  1.036935662379E-01  9.477224469542E-02
C14 -5.872351218158E-02 -2.278116312142E-01  1.241553340531E-01
C15  8.436961229506E-02  2.137455335947E-01  3.259495533124E-02
C16 -3.092843387567E-02 -1.170909784671E-01  6.107022470829E-02
H17 -1.233013012233E-01 -3.928861286908E-01  9.906386522597E-02
H18  1.492442712709E-01  3.786258393769E-01  5.760681139123E-02
C19  3.092843387567E-02  1.170909784671E-01 -6.107022470829E-02
C20 -8.436961229506E-02 -2.137455335947E-01 -3.259495533124E-02
C21  5.872351218158E-02  2.278116312142E-01 -1.241553340531E-01
C22 -5.587225647844E-02 -1.036935662379E-01 -9.477224469542E-02
H23 -1.492442712709E-01 -3.786258393769E-01 -5.760681139123E-02
H24  1.233013012233E-01  3.928861286908E-01 -9.906386522597E-02
C25  4.426267510452E-03  1.320597915168E-01 -2.168949588912E-01
C26 -1.098902804452E-01 -1.996763793419E-01 -1.894575722048E-01
C27  3.023343630747E-02  2.452466771514E-01 -2.813310972197E-01
C28 -8.199123118991E-02 -8.870288241022E-02 -2.505802626790E-01
H29 -1.755517150750E-01 -3.642174112269E-01 -2.147000436996E-01
H30  9.561609819207E-02  4.097292927494E-01 -2.559340786974E-01
C31 -2.687293038371E-02  1.497396079522E-01 -3.724041512821E-01
C32 -1.377831068218E-01 -1.831832176286E-01 -3.469710241105E-01
H33 -7.322223580420E-03  2.387729464179E-01 -4.202728293578E-01
C34 -1.122078942089E-01 -6.795021063179E-02 -4.057504461729E-01
H35 -2.010476206348E-01 -3.491268516756E-01 -3.717608867607E-01
H36 -1.573198981968E-01 -1.402745980947E-01 -4.786149359444E-01
C37 -4.658416182772E-01 -3.964786083364E-01  3.956932889424E-01
H38 -4.819994229612E-01 -3.147896790740E-01  4.590558956855E-01
C39  4.802077476598E-01 -2.892515830701E-01  3.228558546253E-01
C40 -3.853241357267E-01  3.844103694939E-01  3.900516394896E-01
H41  4.203745855725E-01 -1.225383259486E-01  3.275715618655E-01
C42 -4.981856802803E-01 -3.933004367239E-01  2.387124199778E-01
H43 -3.407451852858E-01  3.033902512226E-01  4.494331522909E-01
C44 -3.629108196571E-01  2.783250412606E-01  3.114378898841E-01
C45  4.499987306019E-01 -2.872801022658E-01  1.638507025368E-01
C46 -4.185271988566E-01  3.834718080596E-01  2.326242348290E-01
H47 -3.012394693907E-01  1.127047900403E-01  3.071140178242E-01
H48  3.907773417361E-01 -1.201973549593E-01  1.685158672764E-01
C49  4.735213922069E-01 -3.901716135548E-01  8.152356787704E-02
C50 -3.959530358398E-01  2.797953961113E-01  1.520244861075E-01
C51  4.232908311920E-01 -2.833644208374E-01  5.962752235848E-03
C52 -4.475326516616E-01  3.861045909938E-01  7.528960916422E-02
H53 -3.361128949810E-01  1.131065341452E-01  1.475056530800E-01
H54  3.642695628852E-01 -1.162545291054E-01  1.059733709859E-02
C55  4.475326516616E-01 -3.861045909938E-01 -7.528960916422E-02
C56 -4.232908311920E-01  2.833644208374E-01 -5.962752235848E-03
C57  3.959530358398E-01 -2.797953961113E-01 -1.520244861075E-01
C58 -4.735213922069E-01  3.901716135548E-01 -8.152356787704E-02
H59 -3.642695628852E-01  1.162545291054E-01 -1.059733709859E-02
H60  3.361128949810E-01 -1.131065341452E-01 -1.475056530800E-01
C61  4.185271988566E-01 -3.834718080596E-01 -2.326242348290E-01
C62 -4.499987306019E-01  2.872801022658E-01 -1.638507025368E-01
C63  3.629108196571E-01 -2.783250412606E-01 -3.114378898841E-01
C64  4.981856802803E-01  3.933004367239E-01 -2.387124199778E-01
H65 -3.907773417361E-01  1.201973549593E-01 -1.685158672764E-01
H66  3.012394693907E-01 -1.127047900403E-01 -3.071140178242E-01
C67  3.853241357267E-01 -3.844103694939E-01 -3.900516394896E-01
C68 -4.802077476598E-01  2.892515830701E-01 -3.228558546253E-01
H69  3.407451852858E-01 -3.033902512226E-01 -4.494331522909E-01
C70  4.658416182772E-01  3.964786083364E-01 -3.956932889424E-01
H71 -4.203745855725E-01  1.225383259486E-01 -3.275715618655E-01
H72  4.819994229612E-01  3.147896790740E-01 -4.590558956855E-01


#===END

data_OPT_STEP_2

_symmetry_space_group_name_H-M 'P 1'
_cell_length_a      7.90000000
_cell_length_b      6.06000000
_cell_length_c     16.01000000
_cell_angle_alpha  101.900002
_cell_angle_beta  112.599998
_cell_angle_gamma   85.800003

loop_
_atom_site_label
_atom_site_fract_x
_atom_site_fract_y
_atom_site_fract_z
C1  1.122078942089E-01  6.795021063179E-02  4.057504461729E-01
H2  1.573198981968E-01  1.402745980947E-01  4.786149359444E-01
C3  1.377831068218E-01  1.831832176286E-01  3.469710241105E-01
C4  2.687293038371E-02 -1.497396079522E-01  3.724041512822E-01
H5  2.010476206348E-01  3.491268516756E-01  3.717608867607E-01
C6  8.199123118991E-02  8.870288241022E-02  2.505802626790E-01
H7  7.322223580420E-03 -2.387729464179E-01  4.202728293578E-01
C8 -3.023343630747E-02 -2.452466771514E-01  2.813310972197E-01
C9  1.098902804452E-01  1.996763793419E-01  1.894575722048E-01
C10 -4.426267510452E-03 -1.320597915168E-01  2.168949588912E-01
H11 -9.561609819207E-02 -4.097292927494E-01  2.559340786974E-01
H12  1.755517150750E-01  3.642174112269E-01  2.147000436996E-01
C13  5.587225647844E-02  1.036935662379E-01  9.477224469542E-02
C14 -5.872351218158E-02 -2.278116312142E-01  1.241553340531E-01
C15  8.436961229506E-02  2.137455335947E-01  3.259495533124E-02
C16 -3.092843387567E-02 -1.170909784671E-01  6.107022470829E-02
H17 -1.233013012233E-01 -3.928861286908E-01  9.906386522597E-02
H18  1.492442712709E-01  3.786258393769E-01  5.760681139123E-02
C19  3.092843387567E-02  1.170909784671E-01 -6.107022470829E-02
C20 -8.436961229506E-02 -2.137455335947E-01 -3.259495533124E-02
C21  5.872351218158E-02  2.278116312142E-01 -1.241553340531E-01
C22 -5.587225647844E-02 -1.036935662379E-01 -9.477224469542E-02
H23 -1.492442712709E-01 -3.786258393769E-01 -5.760681139123E-02
H24  1.233013012233E-01  3.928861286908E-01 -9.906386522597E-02
C25  4.426267510452E-03  1.320597915168E-01 -2.168949588912E-01
C26 -1.098902804452E-01 -1.996763793419E-01 -1.894575722048E-01
C27  3.023343630747E-02  2.452466771514E-01 -2.813310972197E-01
C28 -8.199123118991E-02 -8.870288241022E-02 -2.505802626790E-01
H29 -1.755517150750E-01 -3.642174112269E-01 -2.147000436996E-01
H30  9.561609819207E-02  4.097292927494E-01 -2.559340786974E-01
C31 -2.687293038371E-02  1.497396079522E-01 -3.724041512821E-01
C32 -1.377831068218E-01 -1.831832176286E-01 -3.469710241105E-01
H33 -7.322223580420E-03  2.387729464179E-01 -4.202728293578E-01
C34 -1.122078942089E-01 -6.795021063179E-02 -4.057504461729E-01
H35 -2.010476206348E-01 -3.491268516756E-01 -3.717608867607E-01
H36 -1.573198981968E-01 -1.402745980947E-01 -4.786149359444E-01
C37 -4.658416182772E-01 -3.964786083364E-01  3.956932889424E-01
H38 -4.819994229612E-01 -3.147896790740E-01  4.590558956855E-01
C39  4.802077476598E-01 -2.892515830701E-01  3.228558546253E-01
C40 -3.853241357267E-01  3.844103694939E-01  3.900516394896E-01
H41  4.203745855725E-01 -1.225383259486E-01  3.275715618655E-01
C42 -4.981856802803E-01 -3.933004367239E-01  2.387124199778E-01
H43 -3.407451852858E-01  3.033902512226E-01  4.494331522909E-01
C44 -3.629108196571E-01  2.783250412606E-01  3.114378898841E-01
C45  4.499987306019E-01 -2.872801022658E-01  1.638507025368E-01
C46 -4.185271988566E-01  3.834718080596E-01  2.326242348290E-01
H47 -3.012394693907E-01  1.127047900403E-01  3.071140178242E-01
H48  3.907773417361E-01 -1.201973549593E-01  1.685158672764E-01
C49  4.735213922069E-01 -3.901716135548E-01  8.152356787704E-02
C50 -3.959530358398E-01  2.797953961113E-01  1.520244861075E-01
C51  4.232908311920E-01 -2.833644208374E-01  5.962752235848E-03
C52 -4.475326516616E-01  3.861045909938E-01  7.528960916422E-02
H53 -3.361128949810E-01  1.131065341452E-01  1.475056530800E-01
H54  3.642695628852E-01 -1.162545291054E-01  1.059733709859E-02
C55  4.475326516616E-01 -3.861045909938E-01 -7.528960916422E-02
C56 -4.232908311920E-01  2.833644208374E-01 -5.962752235848E-03
C57  3.959530358398E-01 -2.797953961113E-01 -1.520244861075E-01
C58 -4.735213922069E-01  3.901716135548E-01 -8.152356787704E-02
H59 -3.642695628852E-01  1.162545291054E-01 -1.059733709859E-02
H60  3.361128949810E-01 -1.131065341452E-01 -1.475056530800E-01
C61  4.185271988566E-01 -3.834718080596E-01 -2.326242348290E-01
C62 -4.499987306019E-01  2.872801022658E-01 -1.638507025368E-01
C63  3.629108196571E-01 -2.783250412606E-01 -3.114378898841E-01
C64  4.981856802803E-01  3.933004367239E-01 -2.387124199778E-01
H65 -3.907773417361E-01  1.201973549593E-01 -1.685158672764E-01
H66  3.012394693907E-01 -1.127047900403E-01 -3.071140178242E-01
C67  3.853241357267E-01 -3.844103694939E-01 -3.900516394896E-01
C68 -4.802077476598E-01  2.892515830701E-01 -3.228558546253E-01
H69  3.407451852858E-01 -3.033902512226E-01 -4.494331522909E-01
C70  4.658416182772E-01  3.964786083364E-01 -3.956932889424E-01
H71 -4.203745855725E-01  1.225383259486E-01 -3.275715618655E-01
H72  4.819994229612E-01  3.147896790740E-01 -4.590558956855E-01


#===END
