###############################################################
#
#primitive cell cif file
#
###############################################################

posm38_data

_symmetry_space_group_name_H-M 'P 1'
_cell_length_a      13.86596031
_cell_length_b      13.86596031
_cell_length_c      14.21100000
_cell_angle_alpha   90.000000
_cell_angle_beta    90.000000
_cell_angle_gamma   150.032293

loop_
_atom_site_label
_atom_site_fract_x
_atom_site_fract_y
_atom_site_fract_z
C1 2.665085375010E-02 -2.816736939194E-02 -6.584869014848E-04
C2 -9.055257693944E-02 -1.973017840318E-01 4.847909537211E-02
C3 1.946181852782E-01 8.859508331423E-02 -5.075111996812E-02
C4 -2.665085375010E-02 2.816736939194E-02 6.584869014848E-04
C5 -2.660372156573E-01 -3.201668899496E-01 8.825992695799E-02
C6 -2.677379647124E-02 -2.424721296080E-01 7.210140261565E-02
C7 3.190938590116E-01 2.657483903823E-01 -8.883452540272E-02
C8 2.395356088676E-01 2.473162941584E-02 -7.444122807494E-02
C9 9.055257693944E-02 1.973017840318E-01 -4.847909537211E-02
C10 -1.946181852782E-01 -8.859508331423E-02 5.075111996812E-02
C11 -3.190938590116E-01 -2.657483903823E-01 8.883452540272E-02
C12 -3.915812337504E-01 -4.957138700819E-01 1.350871524603E-01
C13 -1.091624081050E-01 -3.954283984378E-01 3.079101610020E-02
C14 1.033699703161E-01 -1.430087111825E-01 1.459854236555E-01
C15 2.660372156573E-01 3.201668899496E-01 -8.825992695799E-02
C16 4.958997829277E-01 3.924097241889E-01 -1.344342568404E-01
C17 3.861018374958E-01 1.010328645176E-01 -2.868366883161E-02
C18 1.471929935499E-01 -9.912631491555E-02 -1.505393334132E-01
C19 2.677379647124E-02 2.424721296080E-01 -7.210140261565E-02
C20 -2.395356088676E-01 -2.473162941584E-02 7.444122807494E-02
C21 -4.958997829277E-01 -3.924097241889E-01 1.344342568404E-01
H22 -3.511089341326E-01 4.642452721193E-01 1.378421475899E-01
C23 4.411527410045E-01 3.880163929316E-01 1.764092450828E-01
H24 -2.097655567656E-01 -4.737117894642E-01 -2.682404976152E-02
C25 -6.410193526830E-02 -4.482167232536E-01 6.310075808500E-02
H26 1.669881132237E-01 -2.529637474921E-02 1.791687519887E-01
C27 1.512545033655E-01 -1.932785241588E-01 1.776785552848E-01
C28 3.915812337504E-01 4.957138700819E-01 -1.350871524603E-01
H29 -4.634360110625E-01 3.525141972985E-01 -1.361696122991E-01
C30 -3.873913043747E-01 -4.400196921466E-01 -1.755814309292E-01
H31 4.584968695070E-01 1.966874429354E-01 3.066232424537E-02
C32 4.393346487112E-01 5.565027290417E-02 -5.838471301513E-02
H33 3.429397684519E-02 -1.582384359451E-01 -1.871076496284E-01
C34 1.983216459098E-01 -1.470557535790E-01 -1.798766555965E-01
C35 1.091624081050E-01 3.954283984378E-01 -3.079101610020E-02
C36 -1.033699703161E-01 1.430087111825E-01 -1.459854236555E-01
C37 -3.861018374958E-01 -1.010328645176E-01 2.868366883161E-02
C38 -1.471929935499E-01 9.912631491555E-02 1.505393334132E-01
H39 4.634360110625E-01 -3.525141972985E-01 1.361696122991E-01
C40 3.873913043747E-01 4.400196921466E-01 1.755814309292E-01
H41 3.496283484724E-01 2.569911258364E-01 2.116925899337E-01
H42 -1.303135638837E-01 4.318576388846E-01 3.090991266850E-02
C43 6.683925604410E-02 -3.470601082686E-01 1.364679369033E-01
H44 2.540100831839E-01 -1.122722835886E-01 2.346805127136E-01
H45 3.511089341326E-01 -4.642452721193E-01 -1.378421475899E-01
C46 -4.411527410045E-01 -3.880163929316E-01 -1.764092450828E-01
H47 -2.548671612468E-01 -3.470723451524E-01 -2.095486493543E-01
H48 -4.450753902567E-01 1.180627675403E-01 -2.280054953022E-02
C49 3.453130123204E-01 -6.923573645344E-02 -1.339021547208E-01
H50 1.227925367599E-01 -2.452057845237E-01 -2.385921658423E-01
H51 2.097655567656E-01 4.737117894642E-01 2.682404976152E-02
C52 6.410193526830E-02 4.482167232536E-01 -6.310075808500E-02
H53 -1.669881132237E-01 2.529637474921E-02 -1.791687519887E-01
C54 -1.512545033655E-01 1.932785241588E-01 -1.776785552848E-01
H55 -4.584968695070E-01 -1.966874429354E-01 -3.066232424537E-02
C56 -4.393346487112E-01 -5.565027290417E-02 5.838471301513E-02
H57 -3.429397684519E-02 1.582384359451E-01 1.871076496284E-01
C58 -1.983216459098E-01 1.470557535790E-01 1.798766555965E-01
H59 2.548671612468E-01 3.470723451524E-01 2.095486493543E-01
H60 1.020009616994E-01 -3.885272442138E-01 1.609239515187E-01
H61 -3.496283484724E-01 -2.569911258364E-01 -2.116925899337E-01
H62 3.873016494334E-01 -1.045031774959E-01 -1.565814597593E-01
H63 1.303135638837E-01 -4.318576388846E-01 -3.090991266850E-02
C64 -6.683925604410E-02 3.470601082686E-01 -1.364679369033E-01
H65 -2.540100831839E-01 1.122722835886E-01 -2.346805127136E-01
H66 4.450753902567E-01 -1.180627675403E-01 2.280054953022E-02
C67 -3.453130123204E-01 6.923573645344E-02 1.339021547208E-01
H68 -1.227925367599E-01 2.452057845237E-01 2.385921658423E-01
H69 -1.020009616994E-01 3.885272442138E-01 -1.609239515187E-01
H70 -3.873016494334E-01 1.045031774959E-01 1.565814597593E-01
C71 4.733491462499E-01 -4.718326306081E-01 4.993415130985E-01
C72 -4.094474230606E-01 -3.026982159682E-01 -4.515209046279E-01
C73 3.053818147218E-01 4.114049166858E-01 4.492488800319E-01
C74 -4.733491462499E-01 4.718326306081E-01 -4.993415130985E-01
C75 -2.339627843427E-01 -1.798331100504E-01 -4.117400730420E-01
C76 -4.732262035288E-01 -2.575278703920E-01 -4.278985973844E-01
C77 1.809061409884E-01 2.342516096177E-01 4.111654745973E-01
C78 2.604643911324E-01 4.752683705842E-01 4.255587719251E-01
C79 4.094474230606E-01 3.026982159682E-01 4.515209046279E-01
C80 -3.053818147218E-01 -4.114049166858E-01 -4.492488800319E-01
C81 -1.809061409884E-01 -2.342516096177E-01 -4.111654745973E-01
C82 -1.084187662496E-01 -4.286129918082E-03 -3.649128475397E-01
C83 -3.908375918950E-01 -1.045716015622E-01 -4.692089838998E-01
C84 3.966300296839E-01 -3.569912888175E-01 -3.540145763445E-01
C85 2.339627843427E-01 1.798331100504E-01 4.117400730420E-01
C86 4.100217072259E-03 1.075902758111E-01 3.655657431596E-01
C87 1.138981625042E-01 3.989671354824E-01 4.713163311684E-01
C88 3.528070064501E-01 -4.008736850844E-01 3.494606665868E-01
C89 4.732262035288E-01 2.575278703920E-01 4.278985973844E-01
C90 -2.604643911324E-01 -4.752683705842E-01 -4.255587719251E-01
C91 -4.100217072259E-03 -1.075902758111E-01 -3.655657431596E-01
H92 -1.488910658674E-01 3.575472788075E-02 -3.621578524101E-01
C93 5.884725899551E-02 1.119836070684E-01 -3.235907549172E-01
H94 -2.902344432344E-01 -2.628821053579E-02 4.731759502385E-01
C95 -4.358980647317E-01 -5.178327674641E-02 -4.368992419150E-01
H96 3.330118867763E-01 -4.747036252508E-01 -3.208312480113E-01
C97 3.487454966345E-01 -3.067214758412E-01 -3.223214447152E-01
C98 1.084187662496E-01 4.286129918082E-03 3.649128475397E-01
H99 -3.656398893751E-02 1.474858027015E-01 3.638303877009E-01
C100 -1.126086956253E-01 -5.998030785341E-02 3.244185690708E-01
H101 4.150313049301E-02 3.033125570646E-01 -4.693376757546E-01
C102 6.066535128882E-02 4.443497270958E-01 4.416152869849E-01
H103 4.657060231548E-01 -3.417615640549E-01 3.128923503716E-01
C104 3.016783540902E-01 -3.529442464210E-01 3.201233444035E-01
C105 3.908375918950E-01 1.045716015622E-01 4.692089838998E-01
C106 -3.966300296839E-01 3.569912888175E-01 3.540145763445E-01
C107 -1.138981625042E-01 -3.989671354824E-01 -4.713163311684E-01
C108 -3.528070064501E-01 4.008736850844E-01 -3.494606665868E-01
H109 3.656398893751E-02 -1.474858027015E-01 -3.638303877009E-01
C110 1.126086956253E-01 5.998030785341E-02 -3.244185690708E-01
H111 1.503716515276E-01 2.430088741636E-01 -2.883074100663E-01
H112 -3.696864361163E-01 6.814236111543E-02 -4.690900873315E-01
C113 4.331607439559E-01 -1.529398917314E-01 -3.635320630967E-01
H114 2.459899168161E-01 -3.877277164114E-01 -2.653194872864E-01
H115 1.488910658674E-01 -3.575472788075E-02 3.621578524101E-01
C116 -5.884725899551E-02 -1.119836070684E-01 3.235907549172E-01
H117 -2.451328387532E-01 -1.529276548476E-01 2.904513506457E-01
H118 -5.492460974334E-02 3.819372324597E-01 4.771994504698E-01
C119 1.546869876796E-01 -4.307642635466E-01 3.660978452792E-01
H120 3.772074632401E-01 -2.547942154763E-01 2.614078341577E-01
H121 2.902344432344E-01 2.628821053579E-02 -4.731759502385E-01
C122 4.358980647317E-01 5.178327674641E-02 4.368992419150E-01
H123 -3.330118867763E-01 4.747036252508E-01 3.208312480113E-01
C124 -3.487454966345E-01 3.067214758412E-01 3.223214447152E-01
H125 -4.150313049301E-02 -3.033125570646E-01 4.693376757546E-01
C126 -6.066535128882E-02 -4.443497270958E-01 -4.416152869849E-01
H127 -4.657060231548E-01 3.417615640549E-01 -3.128923503716E-01
C128 -3.016783540902E-01 3.529442464210E-01 -3.201233444035E-01
H129 2.451328387532E-01 1.529276548476E-01 -2.904513506457E-01
H130 3.979990383006E-01 -1.114727557862E-01 -3.390760484813E-01
H131 -1.503716515276E-01 -2.430088741636E-01 2.883074100663E-01
H132 1.126983505666E-01 -3.954968225041E-01 3.434185402407E-01
H133 3.696864361163E-01 -6.814236111543E-02 4.690900873315E-01
C134 -4.331607439559E-01 1.529398917314E-01 3.635320630967E-01
H135 -2.459899168161E-01 3.877277164114E-01 2.653194872864E-01
H136 5.492460974334E-02 -3.819372324597E-01 -4.771994504698E-01
C137 -1.546869876796E-01 4.307642635466E-01 -3.660978452792E-01
H138 -3.772074632401E-01 2.547942154763E-01 -2.614078341577E-01
H139 -3.979990383006E-01 1.114727557862E-01 3.390760484813E-01
H140 -1.126983505666E-01 3.954968225041E-01 -3.434185402407E-01


#===END
