###############################################################################
#
#                    CRYSTAL17 CIF FILE
#
###############################################################################

data_OPT_STEP_0

_symmetry_space_group_name_H-M 'P 1'
_cell_length_a     17.97300000
_cell_length_b      7.35200000
_cell_length_c      6.24500000
_cell_angle_alpha   90.000000
_cell_angle_beta   90.646004
_cell_angle_gamma   90.000000

loop_
_atom_site_label
_atom_site_fract_x
_atom_site_fract_y
_atom_site_fract_z
C1  1.585988368906E-01 -3.687241016344E-01 -4.999946640245E-01
H2  1.718670101371E-01 -2.904904522670E-01 -3.578966153391E-01
C3  8.537520927180E-02 -3.700353015578E-01  4.271554964772E-01
C4  2.143065252672E-01 -4.643035821211E-01  3.918988387085E-01
H5  4.350665599624E-02 -2.975719623315E-01 -4.830522137385E-01
C6  6.560871408135E-02 -4.649828110789E-01  2.422980205933E-01
C7  1.935115280752E-01  4.426065878007E-01  2.042806996496E-01
C8  2.919970924314E-01 -4.675362071712E-01  4.742145383545E-01
H9  8.143705017296E-03 -4.678637256571E-01  1.886933841735E-01
C10  1.204629893023E-01  4.428746688596E-01  1.295982469887E-01
H11  2.344016796606E-01  3.656094463828E-01  1.161475051728E-01
C12  3.505027119782E-01  4.791299597492E-01  3.488481939271E-01
C13  3.083303378369E-01 -4.114379485371E-01 -3.108163880395E-01
H14  1.066774117667E-01  3.680536437825E-01 -1.517374451324E-02
H15  3.410722210696E-01  4.353228369457E-01  1.854731275190E-01
C16  4.256671930170E-01  4.857203464085E-01  4.226877697673E-01
H17  2.632936319999E-01 -3.762872749812E-01 -2.048386497301E-01
C18  3.795420724965E-01 -4.019075956658E-01 -2.342431085403E-01
C19  4.851524067550E-01  4.361282338407E-01  2.923208527695E-01
C20  4.411847521286E-01 -4.497860067865E-01 -3.643184810719E-01
H21  3.901342877372E-01 -3.561398524275E-01 -7.202973961548E-02
H22  4.739072082945E-01  3.861458055362E-01  1.318688125865E-01
C23 -4.411847521286E-01  4.497860067865E-01  3.643184810719E-01
C24 -4.851524067550E-01 -4.361282338407E-01 -2.923208527695E-01
C25 -3.795420724965E-01  4.019075956658E-01  2.342431085403E-01
C26 -4.256671930170E-01 -4.857203464085E-01 -4.226877697673E-01
H27 -4.739072082945E-01 -3.861458055362E-01 -1.318688125865E-01
H28 -3.901342877372E-01  3.561398524275E-01  7.202973961548E-02
C29 -3.083303378369E-01  4.114379485371E-01  3.108163880395E-01
C30 -3.505027119782E-01 -4.791299597492E-01 -3.488481939271E-01
H31 -2.632936319999E-01  3.762872749812E-01  2.048386497301E-01
C32 -2.919970924314E-01  4.675362071712E-01 -4.742145383545E-01
H33 -3.410722210696E-01 -4.353228369457E-01 -1.854731275190E-01
C34 -2.143065252672E-01  4.643035821211E-01 -3.918988387085E-01
C35 -1.935115280752E-01 -4.426065878007E-01 -2.042806996496E-01
C36 -1.585988368906E-01  3.687241016344E-01  4.999946640245E-01
H37 -2.344016796606E-01 -3.656094463828E-01 -1.161475051728E-01
C38 -1.204629893023E-01 -4.428746688596E-01 -1.295982469887E-01
H39 -1.718670101371E-01  2.904904522670E-01  3.578966153391E-01
C40 -8.537520927180E-02  3.700353015578E-01 -4.271554964772E-01
H41 -1.066774117667E-01 -3.680536437825E-01  1.517374451324E-02
C42 -6.560871408135E-02  4.649828110789E-01 -2.422980205933E-01
H43 -4.350665599624E-02  2.975719623315E-01  4.830522137385E-01
H44 -8.143705017296E-03  4.678637256571E-01 -1.886933841735E-01
C45 -1.585391509685E-01  6.648736639146E-02  1.260233417758E-02
H46 -1.707809193758E-01  1.552454356451E-01 -1.214232055311E-01
C47 -8.642510454895E-02  6.297642365520E-02  9.472656142663E-02
C48 -2.150034398432E-01 -3.811843674320E-02  1.053369028423E-01
H49 -4.403526085344E-02  1.467611309797E-01  2.197223603279E-02
C50 -6.875228534816E-02 -4.553782775707E-02  2.702410169547E-01
C51 -1.962312473671E-01 -1.454323859683E-01  2.834561839396E-01
C52 -2.922474621506E-01 -2.941476979557E-02  2.061501580963E-02
H53 -1.210679918172E-02 -4.944921794002E-02  3.312669600446E-01
C54 -1.241361279124E-01 -1.488964572130E-01  3.656591855398E-01
H55 -2.380603569399E-01 -2.298390932897E-01  3.570181544646E-01
C56 -3.523841709447E-01 -6.769362783161E-02  1.470386566238E-01
C57 -3.060138590823E-01  2.933738171559E-02 -1.948179265802E-01
H58 -1.115362663203E-01 -2.337610391742E-01 -4.970979934944E-01
H59 -3.443268980848E-01 -1.122575145804E-01  3.110206021624E-01
C60 -4.268942901384E-01 -3.916355167750E-02  7.459366974535E-02
H61 -2.594451112397E-01  5.105887896518E-02 -3.003155694808E-01
C62 -3.764212009239E-01  5.907152399633E-02 -2.697686653454E-01
C63 -4.879987220921E-01 -6.900184756842E-02  2.068210882708E-01
C64 -4.395415765641E-01  3.065889176714E-02 -1.376107208149E-01
H65 -3.852899101368E-01  1.078980321751E-01 -4.315967752171E-01
H66 -4.788955870031E-01 -1.226392236874E-01  3.666758264800E-01
C67  4.395415765641E-01 -3.065889176714E-02  1.376107208149E-01
C68  4.879987220921E-01  6.900184756842E-02 -2.068210882708E-01
C69  3.764212009239E-01 -5.907152399633E-02  2.697686653454E-01
C70  4.268942901384E-01  3.916355167750E-02 -7.459366974535E-02
H71  4.788955870031E-01  1.226392236874E-01 -3.666758264800E-01
H72  3.852899101368E-01 -1.078980321751E-01  4.315967752171E-01
C73  3.060138590823E-01 -2.933738171559E-02  1.948179265802E-01
C74  3.523841709447E-01  6.769362783161E-02 -1.470386566238E-01
H75  2.594451112397E-01 -5.105887896518E-02  3.003155694808E-01
C76  2.922474621506E-01  2.941476979557E-02 -2.061501580963E-02
H77  3.443268980848E-01  1.122575145804E-01 -3.110206021624E-01
C78  2.150034398432E-01  3.811843674320E-02 -1.053369028423E-01
C79  1.962312473671E-01  1.454323859683E-01 -2.834561839396E-01
C80  1.585391509685E-01 -6.648736639146E-02 -1.260233417758E-02
H81  2.380603569399E-01  2.298390932897E-01 -3.570181544646E-01
C82  1.241361279124E-01  1.488964572130E-01 -3.656591855398E-01
H83  1.707809193758E-01 -1.552454356451E-01  1.214232055311E-01
C84  8.642510454895E-02 -6.297642365520E-02 -9.472656142663E-02
H85  1.115362663203E-01  2.337610391742E-01  4.970979934944E-01
C86  6.875228534816E-02  4.553782775707E-02 -2.702410169547E-01
H87  4.403526085344E-02 -1.467611309797E-01 -2.197223603279E-02
H88  1.210679918172E-02  4.944921794002E-02 -3.312669600446E-01


#===END
