###############################################################
#
#primitive cell cif file
#
###############################################################

DP910Aposm18_data

_symmetry_space_group_name_H-M 'P 1'
_cell_length_a      8.64136129
_cell_length_b      8.64136129
_cell_length_c      12.29000000
_cell_angle_alpha   89.628883
_cell_angle_beta    90.371117
_cell_angle_gamma   76.418725

loop_
_atom_site_label
_atom_site_fract_x
_atom_site_fract_y
_atom_site_fract_z
C1 -3.338303012481E-01 -4.785765085939E-02 -4.805387747667E-01
C2 -4.216707679208E-01 9.431149520344E-02 -4.345531059108E-01
C3 -1.654270345453E-01 -1.006380357923E-01 -4.654992001275E-01
C4 -4.128671972818E-01 -1.426398953364E-01 4.526473906544E-01
C5 4.128671972818E-01 1.426398953364E-01 -4.526473906544E-01
C6 -3.430587254453E-01 1.964216056755E-01 -3.668518895839E-01
H7 -1.049419995966E-01 -2.939900136601E-02 -4.162257110525E-01
C8 -8.066436663071E-02 -2.358867490500E-01 4.865914799141E-01
C9 4.216707679208E-01 -9.431149520344E-02 4.345531059108E-01
C10 -3.184483431986E-01 -2.822909834390E-01 4.032107718694E-01
C11 3.184483431986E-01 2.822909834390E-01 -4.032107718694E-01
C12 3.338303012481E-01 4.785765085939E-02 4.805387747667E-01
C13 -2.830149354813E-01 1.477522903013E-01 -2.631465347188E-01
C14 -3.346187495183E-01 3.472869687245E-01 -4.045628825692E-01
H15 4.699477732317E-02 -2.727820345513E-01 4.981157012622E-01
C16 -1.581060126920E-01 -3.275623983834E-01 4.194267885192E-01
C17 3.430587254453E-01 -1.964216056755E-01 3.668518895839E-01
H18 -3.762129405180E-01 -3.525730763356E-01 3.513714870519E-01
H19 3.762129405180E-01 3.525730763356E-01 -3.513714870519E-01
C20 1.581060126920E-01 3.275623983834E-01 -4.194267885192E-01
C21 1.654270345453E-01 1.006380357923E-01 4.654992001275E-01
H22 -2.876187793837E-01 3.083891962138E-02 -2.328578054092E-01
C23 -2.177067497544E-01 2.480882324712E-01 -1.985577265014E-01
H24 -3.790466470886E-01 3.853505546484E-01 -4.854874483443E-01
C25 -2.709923799824E-01 4.482690246522E-01 -3.394625901064E-01
H26 -8.892655776162E-02 -4.326069627991E-01 3.798998260195E-01
C27 2.830149354813E-01 -1.477522903013E-01 2.631465347188E-01
C28 3.346187495183E-01 -3.472869687245E-01 4.045628825692E-01
H29 8.892655776162E-02 4.326069627991E-01 -3.798998260195E-01
C30 8.066436663071E-02 2.358867490500E-01 -4.865914799141E-01
H31 1.049419995966E-01 2.939900136601E-02 4.162257110525E-01
H32 -1.695967228349E-01 2.087334007794E-01 -1.188078435566E-01
C33 -2.125907101546E-01 3.988119847742E-01 -2.360047785946E-01
H34 -2.666081653406E-01 -4.350400857030E-01 -3.701367022302E-01
H35 2.876187793837E-01 -3.083891962138E-02 2.328578054092E-01
C36 2.177067497544E-01 -2.480882324712E-01 1.985577265014E-01
H37 3.790466470886E-01 -3.853505546484E-01 4.854874483443E-01
C38 2.709923799824E-01 -4.482690246522E-01 3.394625901064E-01
H39 -4.699477732317E-02 2.727820345513E-01 -4.981157012622E-01
H40 -1.621690663156E-01 4.765652711816E-01 -1.850155827190E-01
H41 1.695967228349E-01 -2.087334007794E-01 1.188078435566E-01
C42 2.125907101546E-01 -3.988119847742E-01 2.360047785946E-01
H43 2.666081653406E-01 4.350400857030E-01 3.701367022302E-01
H44 1.621690663156E-01 -4.765652711816E-01 1.850155827190E-01
C45 -4.393804924286E-02 -3.343083344679E-01 -2.217280816592E-02
C46 9.728422601689E-02 -4.267165497623E-01 -6.701553542651E-02
C47 -9.250735976056E-02 -1.658900750274E-01 -3.942084074674E-02
C48 -1.417229226249E-01 -4.082807824926E-01 4.600331011534E-02
C49 1.417229226249E-01 4.082807824926E-01 -4.600331011534E-02
C50 2.010607987569E-01 -3.496295532531E-01 -1.344470381542E-01
H51 -1.902576531845E-02 -1.083161679134E-01 -8.883746900661E-02
C52 -2.271932170947E-01 -7.691803254623E-02 6.565497877108E-03
C53 -9.728422601689E-02 4.267165497623E-01 6.701553542651E-02
C54 -2.805976662909E-01 -3.092674066424E-01 9.334565068288E-02
C55 2.805976662909E-01 3.092674066424E-01 -9.334565068288E-02
C56 4.393804924286E-02 3.343083344679E-01 2.217280816592E-02
C57 1.479461865309E-01 -2.765761663577E-01 -2.341179325236E-01
C58 3.538785715893E-01 -3.462183023816E-01 -9.797466475871E-02
H59 -2.614082675280E-01 5.053128985363E-02 -6.339405170295E-03
C60 -3.225597030546E-01 -1.494984148400E-01 7.405734621786E-02
C61 -2.010607987569E-01 3.496295532531E-01 1.344470381542E-01
H62 -3.533371164773E-01 -3.630646680397E-01 1.459728581204E-01
H63 3.533371164773E-01 3.630646680397E-01 -1.459728581204E-01
C64 3.225597030546E-01 1.494984148400E-01 -7.405734621786E-02
C65 9.250735976056E-02 1.658900750274E-01 3.942084074674E-02
H66 2.974913015328E-02 -2.774351495574E-01 -2.638471633717E-01
C67 2.442893477414E-01 -2.010656240938E-01 -2.948049615360E-01
H68 3.953048665654E-01 -3.995035406032E-01 -1.981450104092E-02
C69 4.513055947941E-01 -2.729271385858E-01 -1.594465213277E-01
H70 -4.275762707422E-01 -7.682952708830E-02 1.114880657644E-01
C71 -1.479461865309E-01 2.765761663577E-01 2.341179325236E-01
C72 -3.538785715893E-01 3.462183023816E-01 9.797466475871E-02
H73 4.275762707422E-01 7.682952708830E-02 -1.114880657644E-01
C74 2.271932170947E-01 7.691803254622E-02 -6.565497877108E-03
H75 1.902576531845E-02 1.083161679134E-01 8.883746900661E-02
H76 2.010425058140E-01 -1.428237339655E-01 -3.710717397452E-01
C77 3.963515274568E-01 -1.994608375521E-01 -2.579805075963E-01
H78 -4.309812110283E-01 -2.716966814480E-01 -1.292973234667E-01
H79 -2.974913015328E-02 2.774351495574E-01 2.638471633717E-01
C80 -2.442893477414E-01 2.010656240938E-01 2.948049615360E-01
H81 -3.953048665654E-01 3.995035406032E-01 1.981450104092E-02
C82 -4.513055947941E-01 2.729271385858E-01 1.594465213277E-01
H83 2.614082675280E-01 -5.053128985363E-02 6.339405170295E-03
H84 4.708229777740E-01 -1.407804454921E-01 -3.059844941077E-01
H85 -2.010425058140E-01 1.428237339655E-01 3.710717397452E-01
C86 -3.963515274568E-01 1.994608375521E-01 2.579805075963E-01
H87 4.309812110283E-01 2.716966814480E-01 1.292973234667E-01
H88 -4.708229777740E-01 1.407804454921E-01 3.059844941077E-01


#===END
