###############################################################
#
#primitive cell cif file
#
###############################################################

DP910Aposm5p_data

_symmetry_space_group_name_H-M 'P 1'
_cell_length_a      _cell_length_b      _cell_length_c      _cell_angle_alpha   _cell_angle_beta    _cell_angle_gamma   
loop_
_atom_site_label
_atom_site_fract_x
_atom_site_fract_y
_atom_site_fract_z


#===END
