###############################################################
#
#                    Primitive-cell CIF File
#
###############################################################

anthr_opt_data

_symmetry_space_group_name_H-M 'P 1'
_cell_length_a      9.45830000
_cell_length_b      6.01000000
_cell_length_c      8.55760000
_cell_angle_alpha   90.000000
_cell_angle_beta    103.583000
_cell_angle_gamma   90.000000

loop_
_atom_site_label
_atom_site_fract_x
_atom_site_fract_y
_atom_site_fract_z
C1 -3.612616448271E-01 -4.184673624435E-01 -4.210744072885E-01
C2 3.612616448271E-01 8.153263755653E-02 -7.892559271145E-02
C3 3.612616448271E-01 4.184673624435E-01 4.210744072885E-01
C4 -3.612616448271E-01 -8.153263755653E-02 7.892559271145E-02
C5 -2.202928953009E-01 -3.438642810248E-01 -3.389203927475E-01
C6 2.202928953009E-01 1.561357189752E-01 -1.610796072525E-01
C7 2.202928953009E-01 3.438642810248E-01 3.389203927475E-01
C8 -2.202928953009E-01 -1.561357189752E-01 1.610796072525E-01
H9 -1.845048199706E-01 -1.815042596974E-01 -3.688684538645E-01
H10 1.845048199706E-01 3.184957403026E-01 -1.311315461355E-01
H11 1.845048199706E-01 1.815042596974E-01 3.688684538645E-01
H12 -1.845048199706E-01 -3.184957403026E-01 1.311315461355E-01
C13 -1.331027234675E-01 -4.724185444930E-01 -2.241344834074E-01
C14 1.331027234675E-01 2.758145550705E-02 -2.758655165926E-01
C15 1.331027234675E-01 4.724185444930E-01 2.241344834074E-01
C16 -1.331027234675E-01 -2.758145550705E-02 2.758655165926E-01
H17 -2.647344691913E-02 -4.124651774223E-01 -1.628798315655E-01
H18 2.647344691913E-02 8.753482257771E-02 -3.371201684345E-01
H19 2.647344691913E-02 4.124651774223E-01 1.628798315655E-01
H20 -2.647344691913E-02 -8.753482257771E-02 3.371201684345E-01
C21 -1.811408759657E-01 3.151640445688E-01 -1.846485089328E-01
C22 1.811408759657E-01 -1.848359554312E-01 -3.153514910672E-01
C23 1.811408759657E-01 -3.151640445688E-01 1.846485089328E-01
C24 -1.811408759657E-01 1.848359554312E-01 3.153514910672E-01
H25 -1.108241633126E-01 2.142507577659E-01 -9.356556705055E-02
H26 1.108241633126E-01 -2.857492422341E-01 -4.064344329495E-01
H27 1.108241633126E-01 -2.142507577659E-01 9.356556705055E-02
H28 -1.108241633126E-01 2.857492422341E-01 4.064344329495E-01
C29 -3.149015971076E-01 2.370886970324E-01 -2.614697171864E-01
C30 3.149015971076E-01 -2.629113029676E-01 -2.385302828136E-01
C31 3.149015971076E-01 -2.370886970324E-01 2.614697171864E-01
C32 -3.149015971076E-01 2.629113029676E-01 2.385302828136E-01
H33 -3.514282562232E-01 7.536692246235E-02 -2.316232181259E-01
H34 3.514282562232E-01 -4.246330775376E-01 -2.683767818741E-01
H35 3.514282562232E-01 -7.536692246235E-02 2.316232181259E-01
H36 -3.514282562232E-01 4.246330775376E-01 2.683767818741E-01
C37 -4.094502434006E-01 3.661163903299E-01 -3.818421239317E-01
C38 4.094502434006E-01 -1.338836096701E-01 -1.181578760683E-01
C39 4.094502434006E-01 -3.661163903299E-01 3.818421239317E-01
C40 -4.094502434006E-01 1.338836096701E-01 1.181578760683E-01
C41 -4.530427470751E-01 -2.900364188504E-01 4.616635040702E-01
C42 4.530427470751E-01 2.099635811496E-01 3.833649592975E-02
C43 4.530427470751E-01 2.900364188504E-01 -4.616635040702E-01
C44 -4.530427470751E-01 -2.099635811496E-01 -3.833649592975E-02
H45 -4.165623542460E-01 -1.280895042719E-01 4.314203400747E-01
H46 4.165623542460E-01 3.719104957281E-01 6.857965992526E-02
H47 4.165623542460E-01 1.280895042719E-01 -4.314203400747E-01
H48 -4.165623542460E-01 -3.719104957281E-01 -6.857965992526E-02


#===END
