###############################################################
#
#                    Primitive-cell CIF File
#
###############################################################

hexa_opt_data

_symmetry_space_group_name_H-M 'P 1'
_cell_length_a      6.30600000
_cell_length_b      7.69700000
_cell_length_c      16.48000000
_cell_angle_alpha   98.769997
_cell_angle_beta    91.250000
_cell_angle_gamma   95.809998

loop_
_atom_site_label
_atom_site_fract_x
_atom_site_fract_y
_atom_site_fract_z
C1 4.252205126606E-02 2.346241871849E-01 3.289083369893E-01
C2 -4.252205126606E-02 -2.346241871849E-01 -3.289083369893E-01
C3 9.391715668602E-02 3.441120685216E-01 4.008504756322E-01
C4 -9.391715668602E-02 -3.441120685216E-01 -4.008504756322E-01
C5 3.004007997680E-01 4.407370691076E-01 4.148643726505E-01
C6 -3.004007997680E-01 -4.407370691076E-01 -4.148643726505E-01
C7 4.498282981605E-01 4.242025621395E-01 3.567123013814E-01
C8 -4.498282981605E-01 -4.242025621395E-01 -3.567123013814E-01
C9 4.035590647624E-01 3.105824530236E-01 2.797277018408E-01
C10 -4.035590647624E-01 -3.105824530236E-01 -2.797277018408E-01
C11 1.934467639716E-01 2.135377724896E-01 2.653606346038E-01
C12 -1.934467639716E-01 -2.135377724896E-01 -2.653606346038E-01
C13 1.443742113978E-01 1.037256019031E-01 1.914649817617E-01
C14 -1.443742113978E-01 -1.037256019031E-01 -1.914649817617E-01
C15 2.938451445928E-01 8.302098447740E-02 1.290291131540E-01
C16 -2.938451445928E-01 -8.302098447740E-02 -1.290291131540E-01
C17 -4.956336256870E-01 1.801401432712E-01 1.434149150906E-01
C18 4.956336256870E-01 -1.801401432712E-01 -1.434149150906E-01
C19 -4.483041003807E-01 2.920600503700E-01 2.192338650199E-01
C20 4.483041003807E-01 -2.920600503700E-01 -2.192338650199E-01
C21 2.454772797173E-01 -2.803177010649E-02 5.452020412272E-02
C22 -2.454772797173E-01 2.803177010649E-02 -5.452020412272E-02
C23 3.946505414140E-01 -4.861525934368E-02 -7.187886592090E-03
C24 -3.946505414140E-01 4.861525934368E-02 7.187886592090E-03
C25 -3.468724779850E-01 1.603168305129E-01 8.223326753626E-02
C26 3.468724779850E-01 -1.603168305129E-01 -8.223326753626E-02
C27 -4.436141692285E-01 -1.197781557861E-01 3.068443221943E-01
C28 4.436141692285E-01 1.197781557861E-01 -3.068443221943E-01
C29 -3.997153148239E-01 -7.810877383495E-02 3.890278271397E-01
C30 3.997153148239E-01 7.810877383495E-02 -3.890278271397E-01
C31 -2.100237602951E-01 -1.263009923463E-01 4.247204568896E-01
C32 2.100237602951E-01 1.263009923463E-01 -4.247204568896E-01
C33 -6.894346661131E-02 -2.131966856474E-01 3.768941372984E-01
C34 6.894346661131E-02 2.131966856474E-01 -3.768941372984E-01
C35 -1.075012585942E-01 -2.600504413492E-01 2.899051942235E-01
C36 1.075012585942E-01 2.600504413492E-01 -2.899051942235E-01
C37 -3.009617350306E-01 -2.123046436807E-01 2.539073547595E-01
C38 3.009617350306E-01 2.123046436807E-01 -2.539073547595E-01
C39 -3.415029265011E-01 -2.549450989134E-01 1.700727714563E-01
C40 3.415029265011E-01 2.549450989134E-01 -1.700727714563E-01
C41 -1.991853209733E-01 -3.445263726186E-01 1.180363224701E-01
C42 1.991853209733E-01 3.445263726186E-01 -1.180363224701E-01
C43 -5.802260070835E-03 -3.930873082087E-01 1.541345335527E-01
C44 5.802260070835E-03 3.930873082087E-01 -1.541345335527E-01
C45 3.301482100379E-02 -3.486841317125E-01 2.399268764882E-01
C46 -3.301482100379E-02 3.486841317125E-01 -2.399268764882E-01
C47 -2.386156329418E-01 -3.868439856975E-01 3.339938143001E-02
C48 2.386156329418E-01 3.868439856975E-01 -3.339938143001E-02
C49 -9.669239030650E-02 -4.755591375886E-01 -1.806710786153E-02
C50 9.669239030650E-02 4.755591375886E-01 1.806710786153E-02
C51 1.355348052114E-01 -4.816846110883E-01 1.032635310221E-01
C52 -1.355348052114E-01 4.816846110883E-01 -1.032635310221E-01
H53 -1.137974868956E-01 1.612551847839E-01 3.184330800126E-01
H54 1.137974868956E-01 -1.612551847839E-01 -3.184330800126E-01
H55 -2.152738841834E-02 3.582095616841E-01 4.484295275670E-01
H56 2.152738841834E-02 -3.582095616841E-01 -4.484295275670E-01
H57 3.376429614872E-01 -4.714086627612E-01 4.723777005817E-01
H58 -3.376429614872E-01 4.714086627612E-01 -4.723777005817E-01
H59 -3.938393197934E-01 4.978681044623E-01 3.673525611919E-01
H60 3.938393197934E-01 -4.978681044623E-01 -3.673525611919E-01
H61 -1.260405236445E-02 3.127752806637E-02 1.808316885277E-01
H62 1.260405236445E-02 -3.127752806637E-02 -1.808316885277E-01
H63 -2.914705097696E-01 3.647212413710E-01 2.299801109266E-01
H64 2.914705097696E-01 -3.647212413710E-01 -2.299801109266E-01
H65 8.847375329749E-02 -1.004399602629E-01 4.387341645868E-02
H66 -8.847375329749E-02 1.004399602629E-01 -4.387341645868E-02
H67 -1.898963387272E-01 2.327207056286E-01 9.292316087528E-02
H68 1.898963387272E-01 -2.327207056286E-01 -9.292316087528E-02
H69 4.128563540995E-01 -8.284561140863E-02 2.798431038478E-01
H70 -4.128563540995E-01 8.284561140863E-02 -2.798431038478E-01
H71 4.923363858121E-01 -5.128283160880E-03 4.277362149714E-01
H72 -4.923363858121E-01 5.128283160880E-03 -4.277362149714E-01
H73 -1.776084413685E-01 -9.203066816055E-02 4.903344538225E-01
H74 1.776084413685E-01 9.203066816055E-02 -4.903344538225E-01
H75 7.672690172361E-02 -2.479131235062E-01 4.034318480465E-01
H76 -7.672690172361E-02 2.479131235062E-01 -4.034318480465E-01
H77 -4.857279186445E-01 -2.187252779286E-01 1.431878956037E-01
H78 4.857279186445E-01 2.187252779286E-01 -1.431878956037E-01
H79 1.769995817679E-01 -3.849255429251E-01 2.669814336238E-01
H80 -1.769995817679E-01 3.849255429251E-01 -2.669814336238E-01
H81 -3.827005117115E-01 -3.503769073687E-01 6.529397134450E-03
H82 3.827005117115E-01 3.503769073687E-01 -6.529397134450E-03
H83 2.795168341318E-01 4.817986798182E-01 1.301862999427E-01
H84 -2.795168341318E-01 -4.817986798182E-01 -1.301862999427E-01


#===END
