###############################################################
#
#                    Primitive-cell CIF File
#
###############################################################

tetra_opt_data

_symmetry_space_group_name_H-M 'P 1'
_cell_length_a      7.90000000
_cell_length_b      6.03000000
_cell_length_c      13.53000000
_cell_angle_alpha   100.300000
_cell_angle_beta    113.200000
_cell_angle_gamma   86.300000

loop_
_atom_site_label
_atom_site_fract_x
_atom_site_fract_y
_atom_site_fract_z
C1 1.213524125134E-01 4.428405613653E-02 3.888892656396E-01
C2 -1.213524125134E-01 -4.428405613653E-02 -3.888892656396E-01
C3 1.446228200052E-01 1.649721686213E-01 3.191019599585E-01
C4 -1.446228200052E-01 -1.649721686213E-01 -3.191019599585E-01
C5 8.338965898770E-02 7.796441017538E-02 2.049732800776E-01
C6 -8.338965898770E-02 -7.796441017538E-02 -2.049732800776E-01
C7 1.069081862521E-01 1.960001337634E-01 1.320664869123E-01
C8 -1.069081862521E-01 -1.960001337634E-01 -1.320664869123E-01
C9 4.484970775600E-02 1.090720097978E-01 1.996902807132E-02
C10 -4.484970775600E-02 -1.090720097978E-01 -1.996902807132E-02
C11 6.737016882140E-02 2.275918945511E-01 -5.459536035646E-02
C12 -6.737016882140E-02 -2.275918945511E-01 5.459536035646E-02
C13 -5.426567008838E-03 -1.406175320621E-01 1.651105655538E-01
C14 5.426567008838E-03 1.406175320621E-01 -1.651105655538E-01
C15 -2.730903035414E-02 -2.606196721041E-01 2.414506698151E-01
C16 2.730903035414E-02 2.606196721041E-01 -2.414506698151E-01
C17 3.435820599432E-02 -1.719162692729E-01 3.494982564351E-01
C18 -3.435820599432E-02 1.719162692729E-01 -3.494982564351E-01
H19 1.686633597375E-01 1.125643393603E-01 4.750900499851E-01
H20 -1.686633597375E-01 -1.125643393603E-01 -4.750900499851E-01
H21 2.086402847029E-01 3.304228403824E-01 3.482257498965E-01
H22 -2.086402847029E-01 -3.304228403824E-01 -3.482257498965E-01
H23 1.742226164038E-01 3.594679078830E-01 1.618680566199E-01
H24 -1.742226164038E-01 -3.594679078830E-01 -1.618680566199E-01
H25 1.343208578665E-01 3.912141477064E-01 -2.481201581861E-02
H26 -1.343208578665E-01 -3.912141477064E-01 2.481201581861E-02
H27 -9.408742172181E-02 -4.241440520245E-01 2.114600316086E-01
H28 9.408742172181E-02 4.241440520245E-01 -2.114600316086E-01
H29 1.642659431618E-02 -2.656027892116E-01 4.060475738488E-01
H30 -1.642659431618E-02 2.656027892116E-01 -4.060475738488E-01
C31 -4.505927865574E-01 -4.224587910124E-01 3.785361108580E-01
C32 4.505927865574E-01 4.224587910124E-01 -3.785361108580E-01
C33 4.902670106132E-01 -3.081722778819E-01 2.928888965395E-01
C34 -4.902670106132E-01 3.081722778819E-01 -2.928888965395E-01
C35 -4.956802639619E-01 -4.051835953790E-01 1.919280988871E-01
C36 4.956802639619E-01 4.051835953790E-01 -1.919280988871E-01
C37 4.456382411123E-01 -2.925189696863E-01 1.033522481538E-01
C38 -4.456382411123E-01 2.925189696863E-01 -1.033522481538E-01
C39 4.610355767792E-01 -3.887477995312E-01 4.641418518206E-03
C40 -4.610355767792E-01 3.887477995312E-01 -4.641418518206E-03
C41 4.022699625970E-01 -2.757765266857E-01 -8.548810931960E-02
C42 -4.022699625970E-01 2.757765266857E-01 8.548810931960E-02
C43 -4.175390048361E-01 3.724320503186E-01 1.827188212753E-01
C44 4.175390048361E-01 -3.724320503186E-01 -1.827188212753E-01
C45 -3.567138209101E-01 2.595594767367E-01 2.751293526826E-01
C46 3.567138209101E-01 -2.595594767367E-01 -2.751293526826E-01
C47 -3.728653436610E-01 3.584186228514E-01 3.695902594961E-01
C48 3.728653436610E-01 -3.584186228514E-01 -3.695902594961E-01
H49 -4.618602510393E-01 -3.461995882633E-01 4.545038533713E-01
H50 4.618602510393E-01 3.461995882633E-01 -4.545038533713E-01
H51 4.318227020517E-01 -1.415216291176E-01 2.999738424577E-01
H52 -4.318227020517E-01 1.415216291176E-01 -2.999738424577E-01
H53 3.869312474112E-01 -1.259141784944E-01 1.102761803774E-01
H54 -3.869312474112E-01 1.259141784944E-01 -1.102761803774E-01
H55 3.434295710744E-01 -1.092257720661E-01 -7.861283431603E-02
H56 -3.434295710744E-01 1.092257720661E-01 7.861283431603E-02
H57 -2.970361456046E-01 9.360323273126E-02 2.683511808045E-01
H58 2.970361456046E-01 -9.360323273126E-02 -2.683511808045E-01
H59 -3.262038063656E-01 2.710312673644E-01 4.389739977949E-01
H60 3.262038063656E-01 -2.710312673644E-01 -4.389739977949E-01


#===END
