###############################################################
#
#                    Primitive-cell CIF File
#
###############################################################

TIPS-P_data

_symmetry_space_group_name_H-M 'P 1'
_cell_length_a      7.56500000
_cell_length_b      7.75000000
_cell_length_c      16.83500000
_cell_angle_alpha   89.150000
_cell_angle_beta    78.420000
_cell_angle_gamma   83.630000

loop_
_atom_site_label
_atom_site_fract_x
_atom_site_fract_y
_atom_site_fract_z
SI1 2.509863328144E-01 -2.892611521929E-01 3.227933487379E-01
SI2 -2.509863328144E-01 2.892611521929E-01 -3.227933487379E-01
C3 4.487737357444E-01 -5.914138162830E-02 8.087282235852E-02
C4 -4.487737357444E-01 5.914138162830E-02 -8.087282235852E-02
C5 3.215062923278E-01 4.780989972909E-02 4.556450509246E-02
C6 -3.215062923278E-01 -4.780989972909E-02 -4.556450509246E-02
C7 1.438125213794E-01 9.642159366687E-02 8.818270233991E-02
C8 -1.438125213794E-01 -9.642159366687E-02 -8.818270233991E-02
C9 1.674597583193E-02 1.960945657415E-01 5.346074081287E-02
C10 -1.674597583193E-02 -1.960945657415E-01 -5.346074081287E-02
C11 -1.649264633026E-01 2.424955550936E-01 9.644145967134E-02
C12 1.649264633026E-01 -2.424955550936E-01 -9.644145967134E-02
C13 -2.882335910065E-01 3.369389103773E-01 6.007745732080E-02
C14 2.882335910065E-01 -3.369389103773E-01 -6.007745732080E-02
C15 -2.384442952370E-01 3.922924287945E-01 -2.169327356844E-02
C16 2.384442952370E-01 -3.922924287945E-01 2.169327356844E-02
C17 -6.724987809712E-02 3.514069373025E-01 -6.482167168919E-02
C18 6.724987809712E-02 -3.514069373025E-01 6.482167168919E-02
C19 6.694071008675E-02 2.517994713025E-01 -2.936410078668E-02
C20 -6.694071008675E-02 -2.517994713025E-01 2.936410078668E-02
C21 2.422007324472E-01 2.068967673331E-01 -7.165895735309E-02
C22 -2.422007324472E-01 -2.068967673331E-01 7.165895735309E-02
C23 3.728057224094E-01 1.064847526924E-01 -3.681327279532E-02
C24 -3.728057224094E-01 -1.064847526924E-01 3.681327279532E-02
C25 3.946202088987E-01 -1.245850822387E-01 1.597801859904E-01
C26 -3.946202088987E-01 1.245850822387E-01 -1.597801859904E-01
C27 3.435941552679E-01 -1.856120676061E-01 2.262728939094E-01
C28 -3.435941552679E-01 1.856120676061E-01 -2.262728939094E-01
C29 3.288079629660E-01 4.665301766304E-01 3.124111426553E-01
C30 -3.288079629660E-01 -4.665301766304E-01 -3.124111426553E-01
C31 2.492773736785E-01 3.824181923959E-01 2.473163500685E-01
C32 -2.492773736785E-01 -3.824181923959E-01 -2.473163500685E-01
C33 -4.633582925779E-01 4.287382991642E-01 2.957159980838E-01
C34 4.633582925779E-01 -4.287382991642E-01 -2.957159980838E-01
C35 3.534278943209E-01 -1.902659426957E-01 4.045174049482E-01
C36 -3.534278943209E-01 1.902659426957E-01 -4.045174049482E-01
C37 3.158529345291E-01 -2.816555950068E-01 4.866452749383E-01
C38 -3.158529345291E-01 2.816555950068E-01 -4.866452749383E-01
C39 3.055124104427E-01 6.909743594813E-03 4.137343967266E-01
C40 -3.055124104427E-01 -6.909743594813E-03 -4.137343967266E-01
C41 -8.129682928602E-03 -2.529980426864E-01 3.353808353324E-01
C42 8.129682928602E-03 2.529980426864E-01 -3.353808353324E-01
C43 -1.049739652681E-01 -3.482798921513E-01 4.092205751110E-01
C44 1.049739652681E-01 3.482798921513E-01 -4.092205751110E-01
C45 -8.766319505700E-02 -6.216717037634E-02 3.340369833376E-01
C46 8.766319505700E-02 6.216717037634E-02 -3.340369833376E-01
H47 1.050740223608E-01 5.080196512585E-02 1.495935427887E-01
H48 -1.050740223608E-01 -5.080196512585E-02 -1.495935427887E-01
H49 -2.030338645529E-01 1.980679853572E-01 1.582144192040E-01
H50 2.030338645529E-01 -1.980679853572E-01 -1.582144192040E-01
H51 -4.261741174777E-01 3.687108996725E-01 9.295520637620E-02
H52 4.261741174777E-01 -3.687108996725E-01 -9.295520637620E-02
H53 -3.389238549810E-01 4.679013021678E-01 -4.920896659829E-02
H54 3.389238549810E-01 -4.679013021678E-01 4.920896659829E-02
H55 -2.914024014645E-02 3.949617997898E-01 -1.267070865484E-01
H56 2.914024014645E-02 -3.949617997898E-01 1.267070865484E-01
H57 2.806937147568E-01 2.485859557779E-01 -1.338135999802E-01
H58 -2.806937147568E-01 -2.485859557779E-01 1.338135999802E-01
H59 2.751057521683E-01 4.094824479717E-01 3.712067335069E-01
H60 -2.751057521683E-01 -4.094824479717E-01 -3.712067335069E-01
H61 2.856011560425E-01 4.461063074610E-01 1.888259505214E-01
H62 -2.856011560425E-01 -4.461063074610E-01 -1.888259505214E-01
H63 1.011898501753E-01 3.901851245673E-01 2.628311827323E-01
H64 -1.011898501753E-01 -3.901851245673E-01 -2.628311827323E-01
H65 3.010469701332E-01 2.449511378460E-01 2.386712458813E-01
H66 -3.010469701332E-01 -2.449511378460E-01 -2.386712458813E-01
H67 -4.221801889650E-01 2.885789888199E-01 2.912585579202E-01
H68 4.221801889650E-01 -2.885789888199E-01 -2.912585579202E-01
H69 -4.045330831602E-01 4.788121735107E-01 3.436963241115E-01
H70 4.045330831602E-01 -4.788121735107E-01 -3.436963241115E-01
H71 -4.016613850269E-01 4.862691691671E-01 2.385320448841E-01
H72 4.016613850269E-01 -4.862691691671E-01 -2.385320448841E-01
H73 4.998410364839E-01 -2.134505995598E-01 3.796724406928E-01
H74 -4.998410364839E-01 2.134505995598E-01 -3.796724406928E-01
H75 3.916331538815E-01 -2.316486873517E-01 -4.713316881338E-01
H76 -3.916331538815E-01 2.316486873517E-01 4.713316881338E-01
H77 3.537038557344E-01 -4.217655238790E-01 4.811238640088E-01
H78 -3.537038557344E-01 4.217655238790E-01 -4.811238640088E-01
H79 1.721162392493E-01 -2.605515607960E-01 -4.845775934257E-01
H80 -1.721162392493E-01 2.605515607960E-01 4.845775934257E-01
H81 1.617091205548E-01 4.060916202046E-02 4.400259386441E-01
H82 -1.617091205548E-01 -4.060916202046E-02 -4.400259386441E-01
H83 3.345174401816E-01 7.235360824509E-02 3.554269571064E-01
H84 -3.345174401816E-01 -7.235360824509E-02 -3.554269571064E-01
H85 3.829961519093E-01 6.076524070137E-02 4.539921475603E-01
H86 -3.829961519093E-01 -6.076524070137E-02 -4.539921475603E-01
H87 -3.121739150478E-02 -3.152640672938E-01 2.807248208602E-01
H88 3.121739150478E-02 3.152640672938E-01 -2.807248208602E-01
H89 -5.728358542418E-02 -4.866901457747E-01 4.077594901047E-01
H90 5.728358542418E-02 4.866901457747E-01 -4.077594901047E-01
H91 -2.515687944243E-01 -3.362066680719E-01 4.119378972552E-01
H92 2.515687944243E-01 3.362066680719E-01 -4.119378972552E-01
H93 -8.468048469686E-02 -2.947099335582E-01 4.660060571976E-01
H94 8.468048469686E-02 2.947099335582E-01 -4.660060571976E-01
H95 -1.215055471906E-02 8.923156009147E-03 2.843959302453E-01
H96 1.215055471906E-02 -8.923156009147E-03 -2.843959302453E-01
H97 -8.668652270112E-02 4.996220577566E-03 3.904859322310E-01
H98 8.668652270112E-02 -4.996220577566E-03 -3.904859322310E-01
H99 -2.291276100001E-01 -5.263648062834E-02 3.267390290979E-01
H100 2.291276100001E-01 5.263648062834E-02 -3.267390290979E-01


#===END
